WIDTH=32;
DEPTH=256;
ADDRESS_RADIX=HEX;
DATA_RADIX=HEX;
CONTENT BEGIN
    00 : 00000000;
    01 : 03242ABF;
    02 : 0647D97C;
    03 : 096A9049;
    04 : 0C8BD35E;
    05 : 0FAB272B;
    06 : 12C8106E;
    07 : 15E21444;
    08 : 18F8B83C;
    09 : 1C0B826A;
    0A : 1F19F97B;
    0B : 2223A4C5;
    0C : 25280C5D;
    0D : 2826B928;
    0E : 2B1F34EB;
    0F : 2E110A62;
    10 : 30FBC54D;
    11 : 33DEF287;
    12 : 36BA2013;
    13 : 398CDD32;
    14 : 3C56BA70;
    15 : 3F1749B7;
    16 : 41CE1E64;
    17 : 447ACD50;
    18 : 471CECE6;
    19 : 49B41533;
    1A : 4C3FDFF3;
    1B : 4EBFE8A4;
    1C : 5133CC94;
    1D : 539B2AEF;
    1E : 55F5A4D2;
    1F : 5842DD54;
    20 : 5A827999;
    21 : 5CB420DF;
    22 : 5ED77C89;
    23 : 60EC382F;
    24 : 62F201AC;
    25 : 64E88925;
    26 : 66CF811F;
    27 : 68A69E80;
    28 : 6A6D98A3;
    29 : 6C24295F;
    2A : 6DCA0D14;
    2B : 6F5F02B1;
    2C : 70E2CBC5;
    2D : 72552C84;
    2E : 73B5EBD0;
    2F : 7504D344;
    30 : 7641AF3C;
    31 : 776C4EDA;
    32 : 78848413;
    33 : 798A23B0;
    34 : 7A7D055A;
    35 : 7B5D039D;
    36 : 7C29FBED;
    37 : 7CE3CEB1;
    38 : 7D8A5F3F;
    39 : 7E1D93E9;
    3A : 7E9D55FB;
    3B : 7F0991C3;
    3C : 7F62368E;
    3D : 7FA736B3;
    3E : 7FD8878D;
    3F : 7FF62181;
    40 : 7FFFFFFF;
    41 : 7FF62181;
    42 : 7FD8878D;
    43 : 7FA736B3;
    44 : 7F62368E;
    45 : 7F0991C3;
    46 : 7E9D55FB;
    47 : 7E1D93E9;
    48 : 7D8A5F3F;
    49 : 7CE3CEB1;
    4A : 7C29FBED;
    4B : 7B5D039D;
    4C : 7A7D055A;
    4D : 798A23B0;
    4E : 78848413;
    4F : 776C4EDA;
    50 : 7641AF3C;
    51 : 7504D344;
    52 : 73B5EBD0;
    53 : 72552C84;
    54 : 70E2CBC5;
    55 : 6F5F02B1;
    56 : 6DCA0D14;
    57 : 6C24295F;
    58 : 6A6D98A3;
    59 : 68A69E80;
    5A : 66CF811F;
    5B : 64E88925;
    5C : 62F201AC;
    5D : 60EC382F;
    5E : 5ED77C89;
    5F : 5CB420DF;
    60 : 5A827999;
    61 : 5842DD54;
    62 : 55F5A4D2;
    63 : 539B2AEF;
    64 : 5133CC94;
    65 : 4EBFE8A4;
    66 : 4C3FDFF3;
    67 : 49B41533;
    68 : 471CECE6;
    69 : 447ACD50;
    6A : 41CE1E64;
    6B : 3F1749B7;
    6C : 3C56BA70;
    6D : 398CDD32;
    6E : 36BA2013;
    6F : 33DEF287;
    70 : 30FBC54D;
    71 : 2E110A62;
    72 : 2B1F34EB;
    73 : 2826B928;
    74 : 25280C5D;
    75 : 2223A4C5;
    76 : 1F19F97B;
    77 : 1C0B826A;
    78 : 18F8B83C;
    79 : 15E21444;
    7A : 12C8106E;
    7B : 0FAB272B;
    7C : 0C8BD35E;
    7D : 096A9049;
    7E : 0647D97C;
    7F : 03242ABF;
    80 : 00000000;
    81 : FCDBD541;
    82 : F9B82684;
    83 : F6956FB7;
    84 : F3742CA2;
    85 : F054D8D5;
    86 : ED37EF92;
    87 : EA1DEBBC;
    88 : E70747C4;
    89 : E3F47D96;
    8A : E0E60685;
    8B : DDDC5B3B;
    8C : DAD7F3A3;
    8D : D7D946D8;
    8E : D4E0CB15;
    8F : D1EEF59E;
    90 : CF043AB3;
    91 : CC210D79;
    92 : C945DFED;
    93 : C67322CE;
    94 : C3A94590;
    95 : C0E8B649;
    96 : BE31E19C;
    97 : BB8532B0;
    98 : B8E3131A;
    99 : B64BEACD;
    9A : B3C0200D;
    9B : B140175C;
    9C : AECC336C;
    9D : AC64D511;
    9E : AA0A5B2E;
    9F : A7BD22AC;
    A0 : A57D8667;
    A1 : A34BDF21;
    A2 : A1288377;
    A3 : 9F13C7D1;
    A4 : 9D0DFE54;
    A5 : 9B1776DB;
    A6 : 99307EE1;
    A7 : 97596180;
    A8 : 9592675D;
    A9 : 93DBD6A1;
    AA : 9235F2EC;
    AB : 90A0FD4F;
    AC : 8F1D343B;
    AD : 8DAAD37C;
    AE : 8C4A1430;
    AF : 8AFB2CBC;
    B0 : 89BE50C4;
    B1 : 8893B126;
    B2 : 877B7BED;
    B3 : 8675DC50;
    B4 : 8582FAA6;
    B5 : 84A2FC63;
    B6 : 83D60413;
    B7 : 831C314F;
    B8 : 8275A0C1;
    B9 : 81E26C17;
    BA : 8162AA05;
    BB : 80F66E3D;
    BC : 809DC972;
    BD : 8058C94D;
    BE : 80277873;
    BF : 8009DE7F;
    C0 : 80000001;
    C1 : 8009DE7F;
    C2 : 80277873;
    C3 : 8058C94D;
    C4 : 809DC972;
    C5 : 80F66E3D;
    C6 : 8162AA05;
    C7 : 81E26C17;
    C8 : 8275A0C1;
    C9 : 831C314F;
    CA : 83D60413;
    CB : 84A2FC63;
    CC : 8582FAA6;
    CD : 8675DC50;
    CE : 877B7BED;
    CF : 8893B126;
    D0 : 89BE50C4;
    D1 : 8AFB2CBC;
    D2 : 8C4A1430;
    D3 : 8DAAD37C;
    D4 : 8F1D343B;
    D5 : 90A0FD4F;
    D6 : 9235F2EC;
    D7 : 93DBD6A1;
    D8 : 9592675D;
    D9 : 97596180;
    DA : 99307EE1;
    DB : 9B1776DB;
    DC : 9D0DFE54;
    DD : 9F13C7D1;
    DE : A1288377;
    DF : A34BDF21;
    E0 : A57D8667;
    E1 : A7BD22AC;
    E2 : AA0A5B2E;
    E3 : AC64D511;
    E4 : AECC336C;
    E5 : B140175C;
    E6 : B3C0200D;
    E7 : B64BEACD;
    E8 : B8E3131A;
    E9 : BB8532B0;
    EA : BE31E19C;
    EB : C0E8B649;
    EC : C3A94590;
    ED : C67322CE;
    EE : C945DFED;
    EF : CC210D79;
    F0 : CF043AB3;
    F1 : D1EEF59E;
    F2 : D4E0CB15;
    F3 : D7D946D8;
    F4 : DAD7F3A3;
    F5 : DDDC5B3B;
    F6 : E0E60685;
    F7 : E3F47D96;
    F8 : E70747C4;
    F9 : EA1DEBBC;
    FA : ED37EF92;
    FB : F054D8D5;
    FC : F3742CA2;
    FD : F6956FB7;
    FE : F9B82684;
    FF : FCDBD541;
END;
